* Modelo SPICE del NMOS del CD4007UBE ajustado según datasheet

.MODEL NMOS_CD4007 NMOS (LEVEL=7
+ VERSION=3.1
+ CAPMOD=2 MOBMOD=1
+ TOX=1.8E-8         XJ=2.9E-7
+ NCH=4E15           NSUB=5.33E15
+ XT=8.66E-8         NGATE=5E20
+ VTH0=1.0           U0=2500
+ WINT=1.0E-7        LINT=5.0E-8
+ RSH=120
+ JS=3.23E-8         JSW=3.23E-8
+ CJ=6.8E-8          MJ=0.5         PB=0.95
+ CJSW=1.26E-10      MJSW=0.5       PBSW=0.95
+ PCLM=1.0
+ CGSO=3.4E-10       CGDO=3.4E-10   CGBO=5.75E-10 )

